<?xml version="1.0" encoding="UTF-8"?>

<!-- generated on 08/20/21 21:50:56 by SUMO netconvert Version 0.19.0
<?xml version="1.0" encoding="UTF-8"?>

<configuration xmlns:xsi="http://www.w3.org/2001/XMLSchema-instance" xsi:noNamespaceSchemaLocation="http://sumo-sim.org/xsd/netconvertConfiguration.xsd">

    <input>
        <osm-files value="de.osm"/>
    </input>

    <output>
        <output-file value="de.net.xml"/>
    </output>

    <projection>
        <proj.utm value="true"/>
    </projection>

</configuration>
-->

<net version="0.13" xmlns:xsi="http://www.w3.org/2001/XMLSchema-instance" xsi:noNamespaceSchemaLocation="http://sumo-sim.org/xsd/net_file.xsd">

    <location netOffset="-431245.85,-4020244.60" convBoundary="0.00,0.00,3056.99,3079.37" origBoundary="116.233962,36.324909,116.267993,36.352615" projParameter="+proj=utm +zone=50 +ellps=WGS84 +datum=WGS84 +units=m +no_defs"/>

    <edge id=":1481558065_0" function="internal">
        <lane id=":1481558065_0_0" index="0" speed="22.22" length="4.82" shape="1346.45,67.51 1347.10,66.17 1347.86,65.65 1348.73,65.94 1349.72,67.05"/>
    </edge>
    <edge id=":1481558070_0" function="internal">
        <lane id=":1481558070_0_0" index="0" speed="22.22" length="4.82" shape="510.15,132.17 510.73,130.80 511.47,130.25 512.36,130.50 513.39,131.57"/>
    </edge>
    <edge id=":1481558085_0" function="internal">
        <lane id=":1481558085_0_0" index="0" speed="22.22" length="5.16" shape="1370.71,241.14 1370.32,239.75 1369.60,238.82 1368.55,238.34 1367.17,238.32"/>
    </edge>
    <edge id=":1481558085_1" function="internal">
        <lane id=":1481558085_1_0" index="0" speed="22.22" length="9.67" shape="1370.71,241.14 1369.39,231.56"/>
    </edge>
    <edge id=":1481558085_2" function="internal">
        <lane id=":1481558085_2_0" index="0" speed="22.22" length="7.15" shape="1370.71,241.14 1370.73,238.23 1371.69,236.06 1373.19,234.95"/>
    </edge>
    <edge id=":1481558085_3" function="internal">
        <lane id=":1481558085_3_0" index="0" speed="22.22" length="2.41" shape="1370.71,241.14 1371.36,239.81 1372.12,239.29"/>
    </edge>
    <edge id=":1481558085_16" function="internal">
        <lane id=":1481558085_16_0" index="0" speed="22.22" length="3.42" shape="1373.19,234.95 1373.59,234.65 1376.43,233.99"/>
    </edge>
    <edge id=":1481558085_17" function="internal">
        <lane id=":1481558085_17_0" index="0" speed="22.22" length="2.41" shape="1372.12,239.29 1372.99,239.58 1373.98,240.70"/>
    </edge>
    <edge id=":1481558085_4" function="internal">
        <lane id=":1481558085_4_0" index="0" speed="22.22" length="5.06" shape="1376.72,237.27 1375.36,237.59 1374.45,238.27 1373.99,239.30 1373.98,240.70"/>
    </edge>
    <edge id=":1481558085_5" function="internal">
        <lane id=":1481558085_5_0" index="0" speed="22.22" length="9.61" shape="1376.72,237.27 1367.17,238.32"/>
    </edge>
    <edge id=":1481558085_6" function="internal">
        <lane id=":1481558085_6_0" index="0" speed="22.22" length="10.48" shape="1376.72,237.27 1373.84,237.13 1371.66,236.13 1370.18,234.27 1369.39,231.56"/>
    </edge>
    <edge id=":1481558085_7" function="internal">
        <lane id=":1481558085_7_0" index="0" speed="22.22" length="4.82" shape="1376.72,237.27 1375.41,236.56 1374.93,235.77 1375.27,234.92 1376.43,233.99"/>
    </edge>
    <edge id=":1481558085_8" function="internal">
        <lane id=":1481558085_8_0" index="0" speed="22.22" length="5.36" shape="1372.66,231.10 1373.06,232.47 1373.82,233.41 1374.95,233.92 1376.43,233.99"/>
    </edge>
    <edge id=":1481558085_9" function="internal">
        <lane id=":1481558085_9_0" index="0" speed="22.22" length="9.69" shape="1372.66,231.10 1373.98,240.70"/>
    </edge>
    <edge id=":1481558085_10" function="internal">
        <lane id=":1481558085_10_0" index="0" speed="22.22" length="7.16" shape="1372.66,231.10 1372.65,233.94 1371.73,236.09 1370.18,237.33"/>
    </edge>
    <edge id=":1481558085_11" function="internal">
        <lane id=":1481558085_11_0" index="0" speed="22.22" length="2.41" shape="1372.66,231.10 1372.01,232.44 1371.25,232.96"/>
    </edge>
    <edge id=":1481558085_18" function="internal">
        <lane id=":1481558085_18_0" index="0" speed="22.22" length="3.20" shape="1370.18,237.33 1369.90,237.55 1367.17,238.32"/>
    </edge>
    <edge id=":1481558085_19" function="internal">
        <lane id=":1481558085_19_0" index="0" speed="22.22" length="2.41" shape="1371.25,232.96 1370.38,232.67 1369.39,231.56"/>
    </edge>
    <edge id=":1481558085_12" function="internal">
        <lane id=":1481558085_12_0" index="0" speed="22.22" length="5.01" shape="1366.74,235.05 1368.06,234.68 1368.94,233.97 1369.38,232.93 1369.39,231.56"/>
    </edge>
    <edge id=":1481558085_13" function="internal">
        <lane id=":1481558085_13_0" index="0" speed="22.22" length="9.75" shape="1366.74,235.05 1376.43,233.99"/>
    </edge>
    <edge id=":1481558085_14" function="internal">
        <lane id=":1481558085_14_0" index="0" speed="22.22" length="10.47" shape="1366.74,235.05 1369.57,235.09 1371.73,236.04 1373.20,237.91 1373.98,240.70"/>
    </edge>
    <edge id=":1481558085_15" function="internal">
        <lane id=":1481558085_15_0" index="0" speed="22.22" length="4.82" shape="1366.74,235.05 1368.07,235.70 1368.59,236.47 1368.29,237.34 1367.17,238.32"/>
    </edge>
    <edge id=":1481558087_0" function="internal">
        <lane id=":1481558087_0_0" index="0" speed="22.22" length="5.33" shape="954.24,296.32 953.80,294.96 953.02,294.05 951.89,293.60 950.41,293.61"/>
    </edge>
    <edge id=":1481558087_1" function="internal">
        <lane id=":1481558087_1_0" index="0" speed="22.22" length="9.74" shape="954.24,296.32 952.46,286.75"/>
    </edge>
    <edge id=":1481558087_2" function="internal">
        <lane id=":1481558087_2_0" index="0" speed="22.22" length="10.47" shape="954.24,296.32 954.18,293.44 955.07,291.26 956.90,289.78 959.67,289.00"/>
    </edge>
    <edge id=":1481558087_3" function="internal">
        <lane id=":1481558087_3_0" index="0" speed="22.22" length="4.82" shape="954.24,296.32 954.85,294.97 955.60,294.43 956.48,294.70 957.49,295.79"/>
    </edge>
    <edge id=":1481558087_4" function="internal">
        <lane id=":1481558087_4_0" index="0" speed="22.22" length="5.04" shape="960.11,292.27 958.77,292.65 957.89,293.36 957.47,294.41 957.49,295.79"/>
    </edge>
    <edge id=":1481558087_5" function="internal">
        <lane id=":1481558087_5_0" index="0" speed="22.22" length="9.79" shape="960.11,292.27 950.41,293.61"/>
    </edge>
    <edge id=":1481558087_6" function="internal">
        <lane id=":1481558087_6_0" index="0" speed="22.22" length="7.24" shape="960.11,292.27 957.25,292.24 955.03,291.31 953.73,289.82"/>
    </edge>
    <edge id=":1481558087_7" function="internal">
        <lane id=":1481558087_7_0" index="0" speed="22.22" length="2.41" shape="960.11,292.27 958.77,291.62 958.25,290.85"/>
    </edge>
    <edge id=":1481558087_16" function="internal">
        <lane id=":1481558087_16_0" index="0" speed="22.22" length="3.34" shape="953.73,289.82 953.43,289.48 952.46,286.75"/>
    </edge>
    <edge id=":1481558087_17" function="internal">
        <lane id=":1481558087_17_0" index="0" speed="22.22" length="2.41" shape="958.25,290.85 958.55,289.98 959.67,289.00"/>
    </edge>
    <edge id=":1481558087_8" function="internal">
        <lane id=":1481558087_8_0" index="0" speed="22.22" length="5.54" shape="955.70,286.08 956.20,287.52 957.04,288.49 958.19,288.98 959.67,289.00"/>
    </edge>
    <edge id=":1481558087_9" function="internal">
        <lane id=":1481558087_9_0" index="0" speed="22.22" length="9.87" shape="955.70,286.08 957.49,295.79"/>
    </edge>
    <edge id=":1481558087_10" function="internal">
        <lane id=":1481558087_10_0" index="0" speed="22.22" length="10.64" shape="955.70,286.08 955.87,289.02 955.05,291.25 953.23,292.78 950.41,293.61"/>
    </edge>
    <edge id=":1481558087_11" function="internal">
        <lane id=":1481558087_11_0" index="0" speed="22.22" length="4.82" shape="955.70,286.08 955.14,287.46 954.41,288.03 953.52,287.80 952.46,286.75"/>
    </edge>
    <edge id=":1481558087_12" function="internal">
        <lane id=":1481558087_12_0" index="0" speed="22.22" length="5.08" shape="949.94,290.34 951.29,289.95 952.16,289.22 952.55,288.15 952.46,286.75"/>
    </edge>
    <edge id=":1481558087_13" function="internal">
        <lane id=":1481558087_13_0" index="0" speed="22.22" length="9.82" shape="949.94,290.34 959.67,289.00"/>
    </edge>
    <edge id=":1481558087_14" function="internal">
        <lane id=":1481558087_14_0" index="0" speed="22.22" length="7.34" shape="949.94,290.34 952.85,290.33 955.08,291.24 956.39,292.78"/>
    </edge>
    <edge id=":1481558087_15" function="internal">
        <lane id=":1481558087_15_0" index="0" speed="22.22" length="2.41" shape="949.94,290.34 951.28,290.98 951.81,291.74"/>
    </edge>
    <edge id=":1481558087_18" function="internal">
        <lane id=":1481558087_18_0" index="0" speed="22.22" length="3.23" shape="956.39,292.78 956.63,293.06 957.49,295.79"/>
    </edge>
    <edge id=":1481558087_19" function="internal">
        <lane id=":1481558087_19_0" index="0" speed="22.22" length="2.41" shape="951.81,291.74 951.52,292.62 950.41,293.61"/>
    </edge>
    <edge id=":1481558092_0" function="internal">
        <lane id=":1481558092_0_0" index="0" speed="22.22" length="5.16" shape="551.30,353.81 550.88,352.47 550.13,351.59 549.04,351.15 547.62,351.17"/>
    </edge>
    <edge id=":1481558092_1" function="internal">
        <lane id=":1481558092_1_0" index="0" speed="22.22" length="9.62" shape="551.30,353.81 549.66,344.33"/>
    </edge>
    <edge id=":1481558092_2" function="internal">
        <lane id=":1481558092_2_0" index="0" speed="22.22" length="10.40" shape="551.30,353.81 551.25,350.95 552.14,348.78 553.95,347.30 556.69,346.49"/>
    </edge>
    <edge id=":1481558092_3" function="internal">
        <lane id=":1481558092_3_0" index="0" speed="22.22" length="4.82" shape="551.30,353.81 551.92,352.46 552.67,351.92 553.55,352.20 554.55,353.29"/>
    </edge>
    <edge id=":1481558092_4" function="internal">
        <lane id=":1481558092_4_0" index="0" speed="22.22" length="5.02" shape="557.16,349.76 555.84,350.15 554.96,350.86 554.53,351.91 554.55,353.29"/>
    </edge>
    <edge id=":1481558092_5" function="internal">
        <lane id=":1481558092_5_0" index="0" speed="22.22" length="9.65" shape="557.16,349.76 547.62,351.17"/>
    </edge>
    <edge id=":1481558092_6" function="internal">
        <lane id=":1481558092_6_0" index="0" speed="22.22" length="7.19" shape="557.16,349.76 554.32,349.76 552.13,348.86 550.84,347.36"/>
    </edge>
    <edge id=":1481558092_7" function="internal">
        <lane id=":1481558092_7_0" index="0" speed="22.22" length="2.41" shape="557.16,349.76 555.82,349.12 555.29,348.36"/>
    </edge>
    <edge id=":1481558092_16" function="internal">
        <lane id=":1481558092_16_0" index="0" speed="22.22" length="3.27" shape="550.84,347.36 550.57,347.05 549.66,344.33"/>
    </edge>
    <edge id=":1481558092_17" function="internal">
        <lane id=":1481558092_17_0" index="0" speed="22.22" length="2.41" shape="555.29,348.36 555.58,347.49 556.69,346.49"/>
    </edge>
    <edge id=":1481558092_8" function="internal">
        <lane id=":1481558092_8_0" index="0" speed="22.22" length="5.30" shape="552.91,343.73 553.37,345.11 554.15,346.03 555.26,346.49 556.69,346.49"/>
    </edge>
    <edge id=":1481558092_9" function="internal">
        <lane id=":1481558092_9_0" index="0" speed="22.22" length="9.70" shape="552.91,343.73 554.55,353.29"/>
    </edge>
    <edge id=":1481558092_10" function="internal">
        <lane id=":1481558092_10_0" index="0" speed="22.22" length="10.49" shape="552.91,343.73 553.03,346.61 552.18,348.81 550.38,350.33 547.62,351.17"/>
    </edge>
    <edge id=":1481558092_11" function="internal">
        <lane id=":1481558092_11_0" index="0" speed="22.22" length="4.82" shape="552.91,343.73 552.32,345.09 551.59,345.65 550.70,345.40 549.66,344.33"/>
    </edge>
    <edge id=":1481558092_12" function="internal">
        <lane id=":1481558092_12_0" index="0" speed="22.22" length="5.04" shape="547.12,347.91 548.45,347.50 549.31,346.78 549.72,345.72 549.66,344.33"/>
    </edge>
    <edge id=":1481558092_13" function="internal">
        <lane id=":1481558092_13_0" index="0" speed="22.22" length="9.68" shape="547.12,347.91 556.69,346.49"/>
    </edge>
    <edge id=":1481558092_14" function="internal">
        <lane id=":1481558092_14_0" index="0" speed="22.22" length="7.26" shape="547.12,347.91 549.99,347.88 552.19,348.76 553.49,350.30"/>
    </edge>
    <edge id=":1481558092_15" function="internal">
        <lane id=":1481558092_15_0" index="0" speed="22.22" length="2.41" shape="547.12,347.91 548.47,348.54 549.00,349.29"/>
    </edge>
    <edge id=":1481558092_18" function="internal">
        <lane id=":1481558092_18_0" index="0" speed="22.22" length="3.20" shape="553.49,350.30 553.71,350.57 554.55,353.29"/>
    </edge>
    <edge id=":1481558092_19" function="internal">
        <lane id=":1481558092_19_0" index="0" speed="22.22" length="2.41" shape="549.00,349.29 548.72,350.17 547.62,351.17"/>
    </edge>
    <edge id=":1481558094_0" function="internal">
        <lane id=":1481558094_0_0" index="0" speed="22.22" length="4.82" shape="0.25,434.35 -1.10,433.72 -1.63,432.97 -1.35,432.09 -0.25,431.09"/>
    </edge>
    <edge id=":1481558096_0" function="internal">
        <lane id=":1481558096_0_0" index="0" speed="20.83" length="5.01" shape="1890.68,632.31 1890.34,630.98 1889.66,630.07 1888.63,629.60 1887.26,629.56"/>
    </edge>
    <edge id=":1481558096_1" function="internal">
        <lane id=":1481558096_1_0" index="0" speed="27.78" length="9.51" shape="1890.68,632.31 1889.67,622.86"/>
        <lane id=":1481558096_1_1" index="1" speed="27.78" length="9.51" shape="1893.96,631.97 1892.95,622.50"/>
    </edge>
    <edge id=":1481558096_3" function="internal">
        <lane id=":1481558096_3_0" index="0" speed="20.83" length="6.53" shape="1893.96,631.97 1894.27,629.09 1895.87,626.90 1896.69,626.47"/>
    </edge>
    <edge id=":1481558096_4" function="internal">
        <lane id=":1481558096_4_0" index="0" speed="27.78" length="2.41" shape="1893.96,631.97 1894.65,630.65 1895.43,630.15"/>
    </edge>
    <edge id=":1481558096_18" function="internal">
        <lane id=":1481558096_18_0" index="0" speed="20.83" length="6.61" shape="1896.69,626.47 1898.77,625.39 1902.96,624.56"/>
    </edge>
    <edge id=":1481558096_19" function="internal">
        <lane id=":1481558096_19_0" index="0" speed="27.78" length="2.41" shape="1895.43,630.15 1896.29,630.48 1897.24,631.62"/>
    </edge>
    <edge id=":1481558096_5" function="internal">
        <lane id=":1481558096_5_0" index="0" speed="20.83" length="5.03" shape="1903.29,627.85 1901.95,628.18 1901.05,628.86 1900.57,629.89 1900.52,631.28"/>
    </edge>
    <edge id=":1481558096_6" function="internal">
        <lane id=":1481558096_6_0" index="0" speed="13.89" length="16.12" shape="1903.29,627.85 1899.38,628.25 1895.27,628.68 1891.16,629.13 1887.26,629.56"/>
    </edge>
    <edge id=":1481558096_7" function="internal">
        <lane id=":1481558096_7_0" index="0" speed="20.83" length="13.08" shape="1903.29,627.85 1899.02,627.88 1895.88,627.00 1893.85,625.20 1892.95,622.50"/>
    </edge>
    <edge id=":1481558096_8" function="internal">
        <lane id=":1481558096_8_0" index="0" speed="13.89" length="4.82" shape="1903.29,627.85 1901.97,627.15 1901.48,626.37 1901.81,625.51 1902.96,624.56"/>
    </edge>
    <edge id=":1481558096_9" function="internal">
        <lane id=":1481558096_9_0" index="0" speed="20.83" length="5.03" shape="1899.51,621.79 1899.85,623.12 1900.54,624.03 1901.57,624.51 1902.96,624.56"/>
    </edge>
    <edge id=":1481558096_10" function="internal">
        <lane id=":1481558096_10_0" index="0" speed="27.78" length="9.53" shape="1899.51,621.79 1900.52,631.28"/>
        <lane id=":1481558096_10_1" index="1" speed="27.78" length="9.53" shape="1896.23,622.15 1897.24,631.62"/>
    </edge>
    <edge id=":1481558096_12" function="internal">
        <lane id=":1481558096_12_0" index="0" speed="20.83" length="6.50" shape="1896.23,622.15 1895.93,624.98 1894.33,627.16 1893.49,627.60"/>
    </edge>
    <edge id=":1481558096_13" function="internal">
        <lane id=":1481558096_13_0" index="0" speed="27.78" length="2.41" shape="1896.23,622.15 1895.55,623.47 1894.77,623.97"/>
    </edge>
    <edge id=":1481558096_20" function="internal">
        <lane id=":1481558096_20_0" index="0" speed="20.83" length="6.60" shape="1893.49,627.60 1891.44,628.69 1887.26,629.56"/>
    </edge>
    <edge id=":1481558096_21" function="internal">
        <lane id=":1481558096_21_0" index="0" speed="27.78" length="2.41" shape="1894.77,623.97 1893.91,623.65 1892.95,622.50"/>
    </edge>
    <edge id=":1481558096_14" function="internal">
        <lane id=":1481558096_14_0" index="0" speed="20.83" length="5.03" shape="1886.88,626.29 1888.23,625.94 1889.14,625.25 1889.62,624.22 1889.67,622.86"/>
    </edge>
    <edge id=":1481558096_15" function="internal">
        <lane id=":1481558096_15_0" index="0" speed="13.89" length="16.17" shape="1886.88,626.29 1890.79,625.85 1894.92,625.40 1899.04,624.96 1902.96,624.56"/>
    </edge>
    <edge id=":1481558096_16" function="internal">
        <lane id=":1481558096_16_0" index="0" speed="20.83" length="13.15" shape="1886.88,626.29 1891.16,626.21 1894.31,627.07 1896.34,628.87 1897.24,631.62"/>
    </edge>
    <edge id=":1481558096_17" function="internal">
        <lane id=":1481558096_17_0" index="0" speed="13.89" length="4.82" shape="1886.88,626.29 1888.21,626.97 1888.71,627.74 1888.39,628.60 1887.26,629.56"/>
    </edge>
    <edge id=":1481558098_0" function="internal">
        <lane id=":1481558098_0_0" index="0" speed="18.06" length="0.16" shape="1717.67,648.89 1717.51,648.91"/>
    </edge>
    <edge id=":1481558098_1" function="internal">
        <lane id=":1481558098_1_0" index="0" speed="13.89" length="2.41" shape="1717.67,648.89 1716.32,648.26 1715.79,647.50"/>
    </edge>
    <edge id=":1481558098_4" function="internal">
        <lane id=":1481558098_4_0" index="0" speed="13.89" length="2.41" shape="1715.79,647.50 1716.08,646.62 1717.18,645.62"/>
    </edge>
    <edge id=":1481558098_2" function="internal">
        <lane id=":1481558098_2_0" index="0" speed="18.06" length="0.10" shape="1717.14,645.63 1717.18,645.62"/>
    </edge>
    <edge id=":1481558098_3" function="internal">
        <lane id=":1481558098_3_0" index="0" speed="22.22" length="2.41" shape="1717.14,645.63 1718.46,646.31 1718.96,647.08"/>
    </edge>
    <edge id=":1481558098_5" function="internal">
        <lane id=":1481558098_5_0" index="0" speed="22.22" length="2.41" shape="1718.96,647.08 1718.65,647.95 1717.51,648.91"/>
    </edge>
    <edge id=":1481558100_0" function="internal">
        <lane id=":1481558100_0_0" index="0" speed="22.22" length="5.06" shape="1432.37,696.56 1432.00,695.21 1431.28,694.33 1430.23,693.91 1428.83,693.96"/>
    </edge>
    <edge id=":1481558100_1" function="internal">
        <lane id=":1481558100_1_0" index="0" speed="22.22" length="9.72" shape="1432.37,696.56 1431.10,686.92"/>
    </edge>
    <edge id=":1481558100_2" function="internal">
        <lane id=":1481558100_2_0" index="0" speed="22.22" length="7.27" shape="1432.37,696.56 1432.40,693.66 1433.33,691.46 1434.86,690.19"/>
    </edge>
    <edge id=":1481558100_3" function="internal">
        <lane id=":1481558100_3_0" index="0" speed="22.22" length="2.41" shape="1432.37,696.56 1433.03,695.22 1433.80,694.71"/>
    </edge>
    <edge id=":1481558100_16" function="internal">
        <lane id=":1481558100_16_0" index="0" speed="22.22" length="3.24" shape="1434.86,690.19 1435.16,689.93 1437.89,689.10"/>
    </edge>
    <edge id=":1481558100_17" function="internal">
        <lane id=":1481558100_17_0" index="0" speed="22.22" length="2.41" shape="1433.80,694.71 1434.67,695.01 1435.64,696.14"/>
    </edge>
    <edge id=":1481558100_4" function="internal">
        <lane id=":1481558100_4_0" index="0" speed="22.22" length="5.30" shape="1438.39,692.36 1437.03,692.78 1436.12,693.55 1435.66,694.67 1435.64,696.14"/>
    </edge>
    <edge id=":1481558100_5" function="internal">
        <lane id=":1481558100_5_0" index="0" speed="22.22" length="9.69" shape="1438.39,692.36 1428.83,693.96"/>
    </edge>
    <edge id=":1481558100_6" function="internal">
        <lane id=":1481558100_6_0" index="0" speed="22.22" length="10.42" shape="1438.39,692.36 1435.53,692.39 1433.36,691.50 1431.88,689.67 1431.10,686.92"/>
    </edge>
    <edge id=":1481558100_7" function="internal">
        <lane id=":1481558100_7_0" index="0" speed="22.22" length="4.82" shape="1438.39,692.36 1437.04,691.73 1436.51,690.98 1436.79,690.10 1437.89,689.10"/>
    </edge>
    <edge id=":1481558100_8" function="internal">
        <lane id=":1481558100_8_0" index="0" speed="22.22" length="5.02" shape="1434.37,686.48 1434.75,687.80 1435.46,688.68 1436.51,689.12 1437.89,689.10"/>
    </edge>
    <edge id=":1481558100_9" function="internal">
        <lane id=":1481558100_9_0" index="0" speed="22.22" length="9.74" shape="1434.37,686.48 1435.64,696.14"/>
    </edge>
    <edge id=":1481558100_10" function="internal">
        <lane id=":1481558100_10_0" index="0" speed="22.22" length="7.24" shape="1434.37,686.48 1434.35,689.32 1433.42,691.52 1431.88,692.81"/>
    </edge>
    <edge id=":1481558100_11" function="internal">
        <lane id=":1481558100_11_0" index="0" speed="22.22" length="2.41" shape="1434.37,686.48 1433.72,687.81 1432.96,688.33"/>
    </edge>
    <edge id=":1481558100_18" function="internal">
        <lane id=":1481558100_18_0" index="0" speed="22.22" length="3.28" shape="1431.88,692.81 1431.58,693.06 1428.83,693.96"/>
    </edge>
    <edge id=":1481558100_19" function="internal">
        <lane id=":1481558100_19_0" index="0" speed="22.22" length="2.41" shape="1432.96,688.33 1432.08,688.03 1431.10,686.92"/>
    </edge>
    <edge id=":1481558100_12" function="internal">
        <lane id=":1481558100_12_0" index="0" speed="22.22" length="5.36" shape="1428.25,690.71 1429.66,690.25 1430.61,689.47 1431.09,688.36 1431.10,686.92"/>
    </edge>
    <edge id=":1481558100_13" function="internal">
        <lane id=":1481558100_13_0" index="0" speed="22.22" length="9.77" shape="1428.25,690.71 1437.89,689.10"/>
    </edge>
    <edge id=":1481558100_14" function="internal">
        <lane id=":1481558100_14_0" index="0" speed="22.22" length="10.58" shape="1428.25,690.71 1431.17,690.61 1433.37,691.48 1434.86,693.32 1435.64,696.14"/>
    </edge>
    <edge id=":1481558100_15" function="internal">
        <lane id=":1481558100_15_0" index="0" speed="22.22" length="4.82" shape="1428.25,690.71 1429.61,691.31 1430.17,692.05 1429.91,692.93 1428.83,693.96"/>
    </edge>
    <edge id=":1481558102_0" function="internal">
        <lane id=":1481558102_0_0" index="0" speed="22.22" length="5.03" shape="1031.26,768.37 1030.86,767.05 1030.13,766.18 1029.08,765.77 1027.70,765.81"/>
    </edge>
    <edge id=":1481558102_1" function="internal">
        <lane id=":1481558102_1_0" index="0" speed="22.22" length="9.61" shape="1031.26,768.37 1029.77,758.87"/>
    </edge>
    <edge id=":1481558102_2" function="internal">
        <lane id=":1481558102_2_0" index="0" speed="22.22" length="10.44" shape="1031.26,768.37 1031.23,765.52 1032.12,763.31 1033.91,761.77 1036.61,760.87"/>
    </edge>
    <edge id=":1481558102_3" function="internal">
        <lane id=":1481558102_3_0" index="0" speed="22.22" length="4.82" shape="1031.26,768.37 1031.89,767.03 1032.64,766.50 1033.52,766.78 1034.52,767.88"/>
    </edge>
    <edge id=":1481558102_4" function="internal">
        <lane id=":1481558102_4_0" index="0" speed="22.22" length="5.22" shape="1037.19,764.12 1035.84,764.57 1034.95,765.34 1034.51,766.45 1034.52,767.88"/>
    </edge>
    <edge id=":1481558102_5" function="internal">
        <lane id=":1481558102_5_0" index="0" speed="22.22" length="9.64" shape="1037.19,764.12 1027.70,765.81"/>
    </edge>
    <edge id=":1481558102_6" function="internal">
        <lane id=":1481558102_6_0" index="0" speed="22.22" length="7.16" shape="1037.19,764.12 1034.33,764.22 1032.15,763.38 1030.88,761.89"/>
    </edge>
    <edge id=":1481558102_7" function="internal">
        <lane id=":1481558102_7_0" index="0" speed="22.22" length="2.41" shape="1037.19,764.12 1035.82,763.53 1035.27,762.79"/>
    </edge>
    <edge id=":1481558102_16" function="internal">
        <lane id=":1481558102_16_0" index="0" speed="22.22" length="3.24" shape="1030.88,761.89 1030.63,761.60 1029.77,758.87"/>
    </edge>
    <edge id=":1481558102_17" function="internal">
        <lane id=":1481558102_17_0" index="0" speed="22.22" length="2.41" shape="1035.27,762.79 1035.53,761.90 1036.61,760.87"/>
    </edge>
    <edge id=":1481558102_8" function="internal">
        <lane id=":1481558102_8_0" index="0" speed="22.22" length="5.02" shape="1033.03,758.34 1033.44,759.66 1034.17,760.52 1035.23,760.92 1036.61,760.87"/>
    </edge>
    <edge id=":1481558102_9" function="internal">
        <lane id=":1481558102_9_0" index="0" speed="22.22" length="9.66" shape="1033.03,758.34 1034.52,767.88"/>
    </edge>
    <edge id=":1481558102_10" function="internal">
        <lane id=":1481558102_10_0" index="0" speed="22.22" length="10.43" shape="1033.03,758.34 1033.08,761.19 1032.21,763.38 1030.42,764.92 1027.70,765.81"/>
    </edge>
    <edge id=":1481558102_11" function="internal">
        <lane id=":1481558102_11_0" index="0" speed="22.22" length="4.82" shape="1033.03,758.34 1032.41,759.70 1031.66,760.24 1030.78,759.96 1029.77,758.87"/>
    </edge>
    <edge id=":1481558102_12" function="internal">
        <lane id=":1481558102_12_0" index="0" speed="22.22" length="5.16" shape="1027.12,762.56 1028.47,762.12 1029.36,761.36 1029.80,760.28 1029.77,758.87"/>
    </edge>
    <edge id=":1481558102_13" function="internal">
        <lane id=":1481558102_13_0" index="0" speed="22.22" length="9.63" shape="1027.12,762.56 1036.61,760.87"/>
    </edge>
    <edge id=":1481558102_14" function="internal">
        <lane id=":1481558102_14_0" index="0" speed="22.22" length="7.14" shape="1027.12,762.56 1030.00,762.47 1032.19,763.32 1033.42,764.79"/>
    </edge>
    <edge id=":1481558102_15" function="internal">
        <lane id=":1481558102_15_0" index="0" speed="22.22" length="2.41" shape="1027.12,762.56 1028.49,763.16 1029.04,763.90"/>
    </edge>
    <edge id=":1481558102_18" function="internal">
        <lane id=":1481558102_18_0" index="0" speed="22.22" length="3.31" shape="1033.42,764.79 1033.70,765.13 1034.52,767.88"/>
    </edge>
    <edge id=":1481558102_19" function="internal">
        <lane id=":1481558102_19_0" index="0" speed="22.22" length="2.41" shape="1029.04,763.90 1028.77,764.78 1027.70,765.81"/>
    </edge>
    <edge id=":1481558106_0" function="internal">
        <lane id=":1481558106_0_0" index="0" speed="22.22" length="5.21" shape="628.42,840.03 627.99,838.63 627.22,837.79 626.11,837.49 624.68,837.75"/>
    </edge>
    <edge id=":1481558106_1" function="internal">
        <lane id=":1481558106_1_0" index="0" speed="22.22" length="10.13" shape="628.42,840.03 627.95,837.08 627.62,835.02 627.30,832.97 626.83,830.02"/>
    </edge>
    <edge id=":1481558106_2" function="internal">
        <lane id=":1481558106_2_0" index="0" speed="22.22" length="7.61" shape="628.42,840.03 628.34,836.96 629.18,834.60 630.68,833.22"/>
    </edge>
    <edge id=":1481558106_3" function="internal">
        <lane id=":1481558106_3_0" index="0" speed="22.22" length="2.41" shape="628.42,840.03 629.04,838.68 629.79,838.14"/>
    </edge>
    <edge id=":1481558106_16" function="internal">
        <lane id=":1481558106_16_0" index="0" speed="22.22" length="3.23" shape="630.68,833.22 630.96,832.97 633.66,832.05"/>
    </edge>
    <edge id=":1481558106_17" function="internal">
        <lane id=":1481558106_17_0" index="0" speed="22.22" length="2.41" shape="629.79,838.14 630.67,838.42 631.68,839.51"/>
    </edge>
    <edge id=":1481558106_4" function="internal">
        <lane id=":1481558106_4_0" index="0" speed="22.22" length="5.59" shape="634.23,835.30 632.90,835.77 632.03,836.63 631.62,837.88 631.68,839.51"/>
    </edge>
    <edge id=":1481558106_5" function="internal">
        <lane id=":1481558106_5_0" index="0" speed="22.22" length="9.87" shape="634.23,835.30 624.68,837.75"/>
    </edge>
    <edge id=":1481558106_6" function="internal">
        <lane id=":1481558106_6_0" index="0" speed="22.22" length="10.41" shape="634.23,835.30 631.38,835.39 629.19,834.54 627.67,832.75 626.83,830.02"/>
    </edge>
    <edge id=":1481558106_7" function="internal">
        <lane id=":1481558106_7_0" index="0" speed="22.22" length="4.82" shape="634.23,835.30 632.87,834.70 632.32,833.96 632.58,833.08 633.66,832.05"/>
    </edge>
    <edge id=":1481558106_8" function="internal">
        <lane id=":1481558106_8_0" index="0" speed="22.22" length="5.02" shape="630.09,829.50 630.50,830.82 631.23,831.69 632.28,832.09 633.66,832.05"/>
    </edge>
    <edge id=":1481558106_9" function="internal">
        <lane id=":1481558106_9_0" index="0" speed="22.22" length="10.13" shape="630.09,829.50 630.56,832.46 630.88,834.51 631.21,836.56 631.68,839.51"/>
    </edge>
    <edge id=":1481558106_10" function="internal">